<routes>
    <vehicle id="veh0" type="car" route="r0" depart="0"/>
    <vType id="car" accel="2.6" decel="4.5" sigma="0.5" length="5" minGap="2.5" maxSpeed="13.9"/>
    <route id="r0" edges="1 2"/>
</routes>
